Version 4
SHEET 1 1000 680
WIRE 112 96 112 48
WIRE 672 128 512 128
WIRE 304 192 304 176
WIRE 112 208 112 176
WIRE 272 208 112 208
WIRE 432 208 432 176
WIRE 560 208 560 176
WIRE 400 224 336 224
WIRE 512 224 512 128
WIRE 512 224 480 224
WIRE 544 224 512 224
WIRE 112 240 112 208
WIRE 224 240 224 48
WIRE 272 240 224 240
WIRE 672 240 608 240
WIRE 544 256 480 256
WIRE -288 272 -288 240
WIRE -128 272 -128 240
WIRE 304 272 304 256
WIRE 432 272 432 240
WIRE 480 304 480 256
WIRE 480 304 368 304
WIRE 560 304 560 272
WIRE 304 336 304 320
WIRE 112 352 112 320
WIRE 272 352 112 352
WIRE 432 352 432 336
WIRE 368 368 368 304
WIRE 368 368 336 368
WIRE 400 368 368 368
WIRE 512 368 480 368
WIRE -288 384 -288 352
WIRE -128 384 -128 352
WIRE 112 384 112 352
WIRE 224 384 224 240
WIRE 272 384 224 384
WIRE 592 384 592 352
WIRE 512 400 512 368
WIRE 576 400 512 400
WIRE 304 416 304 400
WIRE 432 416 432 384
WIRE 672 416 640 416
WIRE 576 432 512 432
WIRE 512 464 512 432
WIRE 512 464 368 464
WIRE 304 480 304 464
WIRE 592 480 592 448
WIRE 112 496 112 464
WIRE 272 496 112 496
WIRE 368 512 368 464
WIRE 368 512 336 512
WIRE 672 512 368 512
WIRE 112 528 112 496
WIRE 224 528 224 384
WIRE 272 528 224 528
WIRE 304 560 304 544
WIRE 112 640 112 608
FLAG 112 48 VD
FLAG 112 640 0
FLAG -288 240 VD
FLAG -128 240 VS
FLAG -288 384 0
FLAG -128 384 0
FLAG 672 240 OUT2
FLAG 672 128 OUT1
FLAG 672 512 OUT4
FLAG 672 416 OUT3
FLAG 224 48 VS
FLAG 304 176 VD
FLAG 304 320 VD
FLAG 304 464 VD
FLAG 304 272 0
FLAG 304 560 0
FLAG 304 416 0
FLAG 432 176 VD
FLAG 432 336 VD
FLAG 560 176 VD
FLAG 592 352 VD
FLAG 432 272 0
FLAG 432 416 0
FLAG 592 480 0
FLAG 560 304 0
SYMBOL res 96 80 R0
SYMATTR InstName R1
SYMATTR Value 1k
SYMBOL res 96 224 R0
SYMATTR InstName R2
SYMATTR Value 1k
SYMBOL res 96 368 R0
SYMATTR InstName R3
SYMATTR Value 1k
SYMBOL res 96 512 R0
SYMATTR InstName R4
SYMATTR Value 1k
SYMBOL voltage -128 256 R0
WINDOW 123 0 0 Left 0
WINDOW 39 0 0 Left 0
SYMATTR InstName VSGN
SYMATTR Value SINE(2 2 50)
SYMBOL voltage -288 256 R0
WINDOW 123 0 0 Left 0
WINDOW 39 0 0 Left 0
SYMATTR InstName VDD
SYMATTR Value 4
SYMBOL OpAmps\\UniversalOpamp2 304 224 R0
SYMATTR InstName U1
SYMBOL OpAmps\\UniversalOpamp2 304 368 R0
SYMATTR InstName U2
SYMBOL OpAmps\\UniversalOpamp2 304 512 R0
SYMATTR InstName U3
SYMBOL NOT 608 272 R0
SYMATTR InstName X1
SYMBOL NOT 608 416 R0
SYMATTR InstName X2
SYMBOL NAND 736 192 R0
WINDOW 0 -144 6 Bottom 2
SYMATTR InstName X4
SYMBOL NAND 768 368 R0
WINDOW 0 -147 6 Bottom 2
SYMATTR InstName X5
TEXT -320 552 Left 2 !.tran 50m
