Version 4
SHEET 1 880 680
WIRE -96 -528 -96 -576
WIRE 192 -528 -96 -528
WIRE 192 -480 192 -528
WIRE -704 -400 -848 -400
WIRE -96 -400 -96 -528
WIRE -848 -352 -848 -400
WIRE 48 -352 -32 -352
WIRE 192 -352 192 -400
WIRE 192 -352 128 -352
WIRE 368 -304 368 -352
WIRE 192 -272 192 -352
WIRE -96 -256 -96 -304
WIRE -848 -240 -848 -272
WIRE -704 -224 -704 -400
WIRE 368 -176 368 -224
WIRE -96 -144 -96 -176
WIRE -96 -144 -176 -144
WIRE -96 -112 -96 -144
WIRE -704 -80 -704 -144
WIRE -544 -80 -704 -80
WIRE -400 -80 -544 -80
WIRE -176 -80 -176 -144
WIRE -176 -80 -208 -80
WIRE -704 -48 -704 -80
WIRE -400 -16 -576 -16
WIRE -96 0 -96 -32
WIRE -400 16 -512 16
WIRE -176 16 -208 16
WIRE -704 48 -704 16
WIRE -512 64 -512 16
WIRE -176 112 -176 16
WIRE -96 112 -96 64
WIRE -96 112 -176 112
WIRE 192 112 192 -208
WIRE 192 112 -96 112
WIRE -96 144 -96 112
WIRE -576 160 -576 -16
WIRE -512 160 -512 144
WIRE -512 160 -576 160
WIRE -512 192 -512 160
FLAG 368 -176 0
FLAG 368 -352 VDD
FLAG -96 -576 VDD
FLAG -512 192 0
FLAG -96 144 0
FLAG -848 -240 0
FLAG -544 -80 OUT
FLAG -704 48 0
SYMBOL pnp -32 -304 R180
SYMATTR InstName Q1
SYMBOL zener 208 -208 R180
WINDOW 0 24 64 Left 2
WINDOW 3 24 0 Left 2
SYMATTR InstName D1
SYMATTR Value BZX84C12L
SYMBOL res 176 -496 R0
SYMATTR InstName R15
SYMATTR Value 6.8k
SYMBOL res 144 -368 R90
WINDOW 0 0 56 VBottom 2
WINDOW 3 32 56 VTop 2
SYMATTR InstName R4
SYMATTR Value 470
SYMBOL voltage 368 -320 R0
WINDOW 3 24 96 Invisible 2
WINDOW 123 0 0 Left 0
WINDOW 39 0 0 Left 0
SYMATTR Value PULSE(10 15 0.5 0.2 0.2 0.6 2 1)
SYMATTR InstName V1
SYMBOL res -112 -272 R0
SYMATTR InstName R3
SYMATTR Value 470
SYMBOL res -112 -128 R0
SYMATTR InstName R2
SYMATTR Value 8k
SYMBOL Optos\\4N25 -304 -16 M0
SYMATTR InstName U1
SYMBOL res -528 48 R0
SYMATTR InstName R1
SYMATTR Value 1Meg
SYMBOL res -720 -240 R0
SYMATTR InstName R5
SYMATTR Value 10k
SYMBOL LED -112 0 R0
SYMATTR InstName D2
SYMATTR Value NSPW500BS
SYMBOL cap -720 -48 R0
SYMATTR InstName C1
SYMATTR Value 100n
SYMBOL voltage -848 -368 R0
WINDOW 123 0 0 Left 0
WINDOW 39 0 0 Left 0
SYMATTR InstName VLOAD
SYMATTR Value 5
TEXT 328 -72 Left 2 !.tran 2
